# 5-text_indentation.txt

================================
How to Use 5-text_indentation.py
================================

The text-indentation function ``text_indentation(text)`` is defined in this module.

Usage
=====

Each character in the text, there are two new lines printed ``.``, ``?``,
and ``:``.

::

    >>> text_indentation = __import__('5-text_indentation').text_indentation
    >>> text_indentation("Hello?")
    Hello?
    <BLANKLINE>

A line first character is printed without a space.

::

    >>> text_indentation("   Hi there.")
    Hi there.
    <BLANKLINE>

::

    >>> text_indentation("          ")

There are no spaces printed at the conclusion of each line.

::

    >>> text_indentation("Hello.   ")
    Hello.
    <BLANKLINE>

::

    >>> text_indentation("    Woah now.    This is messy.   ")
    Woah now.
    <BLANKLINE>
    This is messy.
    <BLANKLINE>

Only characters are reproduced with new lines ``.``, ``?``, and ``:`` -
There is no new line after text that does not contain one of characters.

::

    >>> text_indentation("No ending period, what bad grammar")
    No ending period, what bad grammar

New lines are displayed as usual within a string.

::

    >>> text_indentation("Let's print a new-line! Here goes:\nPrinted.")
    Let's print a new-line! Here goes:
    <BLANKLINE>
    <BLANKLINE>
    Printed.
    <BLANKLINE>

::

    >>> text_indentation("\n\n\n We just printed three new lines.")
    <BLANKLINE>
    <BLANKLINE>
    <BLANKLINE>
    We just printed three new lines.
    <BLANKLINE>

::
    >>> text_indentation("A sneaky \n new line.")
    A sneaky
    new line.
    <BLANKLINE>

Combo sample:

::

    >>> text_indentation("Lorem ipsum dolor sit amet, consectetur adipiscing "
    ... "elit. Quonam modo? Utrum igitur tibi litteram videor an totas paginas "
    ... "commovere? Non autem hoc: igitur ne illud quidem. Fortasse id optimum, "
    ... "sed ubi illud: Plus semper voluptatis? Teneo, inquit, finem illi videri "
    ... "nihil dolere. Transfer idem ad modestiam vel temperantiam, quae est "
    ... "moderatio cupiditatum rationi oboediens. Si id dicis, vicimus. Inde "
    ... "sermone vario sex illa a Dipylo stadia confecimus. Sin aliud quid "
    ... "voles, postea. Quae animi affectio suum cuique tribuens atque hanc, "
    ... "quam dico. Utinam quidem dicerent alium alio beatiorem! Iam ruinas "
    ... "videres") # doctest: +NORMALIZE_WHITESPACE
    Lorem ipsum dolor sit amet, consectetur adipiscing elit.
    <BLANKLINE>
    Quonam modo?
    <BLANKLINE>
    Utrum igitur tibi litteram videor an totas paginas commovere?
    <BLANKLINE>
    Non autem hoc:
    <BLANKLINE>
    igitur ne illud quidem.
    <BLANKLINE>
    Fortasse id optimum, sed ubi illud:
    <BLANKLINE>
    Plus semper voluptatis?
    <BLANKLINE>
    Teneo, inquit, finem illi videri nihil dolere.
    <BLANKLINE>
    Transfer idem ad modestiam vel temperantiam,
    quae est moderatio cupiditatum rationi oboediens.
    <BLANKLINE>
    Si id dicis, vicimus.
    <BLANKLINE>
    Inde sermone vario sex illa a Dipylo stadia confecimus.
    <BLANKLINE>
    Sin aliud quid voles, postea.
    <BLANKLINE>
    Quae animi affectio suum cuique tribuens atque hanc, quam dico.
    <BLANKLINE>
    Utinam quidem dicerent alium alio beatiorem! Iam ruinas videres

Invalid Text
============

String is required for the parameter ``text`` Otherwise TypeError is generated.

::

    >>> text_indentation(7)
    Traceback (most recent call last):
    TypeError: text must be a string

::

    >>> text_indentation({"one": 1, "two": 2})
    Traceback (most recent call last):
    TypeError: text must be a string

::

    >>> text_indentation(None)
    Traceback (most recent call last):
    TypeError: text must be a string
